test/TEST190523/MAI_Power_seq_kVA.txt

SYMMETRICAL COMPONENT POWERS BY CIRCUIT ELEMENT (first 3 phases)                                     Excess Power

Element                  Term    P1(kW)   Q1(kvar)       P2         Q2      P0      Q0       P_Norm      Q_Norm     P_Emerg    Q_Emerg

"Vsource.SOURCE"          1    -3965.2     -921.9        0.1        0.8    -0.0    -0.0
"Vsource.SOURCE"          2        0.0        0.0        0.0        0.0     0.0     0.0
"Line.MV3PMAI0"           1     3965.2      871.6       -0.1       -2.6     0.0    -2.2        0.0        0.0        0.0        0.0
"Line.MV3PMAI0"           2    -3965.2     -871.5        0.1        2.6     0.0     2.3
"Line.MV3PMAI1"           1     3938.7      807.2        0.2       -5.1    -2.9   -12.8        0.0        0.0        0.0        0.0
"Line.MV3PMAI1"           2    -3938.7     -807.0       -0.2        5.1     2.9    12.8
"Line.MV3PMAI2"           1     3938.7      807.0        0.2       -5.1    -2.9   -12.8        0.0        0.0        0.0        0.0
"Line.MV3PMAI2"           2    -3937.9     -805.2       -0.2        5.2     3.0    13.1
"Line.MV3PMAI3"           1     3938.8      807.3        0.2       -5.1    -2.9   -12.8        0.0        0.0        0.0        0.0
"Line.MV3PMAI3"           2    -3938.7     -807.2       -0.2        5.1     2.9    12.8
"Line.MV3PMAI4"           1     3933.9     1107.6        0.2       -5.2    -3.1   -13.1        0.0        0.0        0.0        0.0
"Line.MV3PMAI4"           2    -3933.2    -1105.9       -0.3        5.3     3.2    13.4
"Line.MV1PMAI5"           1        0.0        0.0        0.0        0.0     0.0     0.0        0.0        0.0        0.0        0.0
"Line.MV1PMAI5"           2        0.0        0.0        0.0        0.0     0.0     0.0
"Line.MV3PMAI6"           1     3879.2     1093.3        0.3       -4.9    -3.0   -12.5        0.0        0.0        0.0        0.0
"Line.MV3PMAI6"           2    -3879.1    -1093.0       -0.3        4.9     3.0    12.5
"Line.MV1PMAI7"           1        0.0        0.0        0.0        0.0     0.0     0.0        0.0        0.0        0.0        0.0
"Line.MV1PMAI7"           2        0.0        0.0        0.0        0.0     0.0     0.0
"Line.MV1PMAI8"           1        0.0        0.0        0.0        0.0     0.0     0.0        0.0        0.0        0.0        0.0
"Line.MV1PMAI8"           2        0.0        0.0        0.0        0.0     0.0     0.0
"Line.MV3PMAI9"           1     3879.1     1093.0        0.3       -4.9    -3.0   -12.5        0.0        0.0        0.0        0.0
"Line.MV3PMAI9"           2    -3878.4    -1092.1       -0.3        4.9     3.0    12.6
"Line.MV3PMAI10"          1     3020.2      793.9        1.6       -4.6    -5.3   -11.4        0.0        0.0        0.0        0.0
"Line.MV3PMAI10"          2    -3019.7     -792.8       -1.6        4.6     5.4    11.7
"Line.MV3PMAI11"          1        0.4        1.3        0.0       -0.0     0.0    -0.0        0.0        0.0        0.0        0.0
"Line.MV3PMAI11"          2       -0.4       -1.3       -0.0        0.0    -0.0     0.0
"Line.MV3PMAI12"          1      428.8      147.9       -0.6       -0.2     1.1    -0.6        0.0        0.0        0.0        0.0
"Line.MV3PMAI12"          2     -428.8     -147.9        0.6        0.2    -1.1     0.6
"Line.MV3PMAI13"          1      428.8      147.9       -0.6       -0.2     1.1    -0.6        0.0        0.0        0.0        0.0
"Line.MV3PMAI13"          2     -428.8     -147.9        0.6        0.2    -1.1     0.6
"Line.MV1PMAI14"          1        0.0        0.0        0.0        0.0     0.0     0.0        0.0        0.0        0.0        0.0
"Line.MV1PMAI14"          2        0.0        0.0        0.0        0.0     0.0     0.0
"Line.MV3PMAI15"          1     3022.3      791.9        1.6       -4.6    -5.3   -11.7        0.0        0.0        0.0        0.0
"Line.MV3PMAI15"          2    -3021.9     -790.9       -1.6        4.7     5.4    11.9
"Line.MV3PMAI16"          1        0.0       -0.0        0.0       -0.0    -0.0    -0.0        0.0        0.0        0.0        0.0
"Line.MV3PMAI16"          2       -0.0        0.0       -0.0       -0.0    -0.0    -0.0
"Line.MV1PMAI17"          1        0.0        0.0        0.0        0.0     0.0     0.0        0.0        0.0        0.0        0.0
"Line.MV1PMAI17"          2        0.0        0.0        0.0        0.0     0.0     0.0
"Line.MV1PMAI18"          1        0.0        0.0        0.0        0.0     0.0     0.0        0.0        0.0        0.0        0.0
"Line.MV1PMAI18"          2        0.0        0.0        0.0        0.0     0.0     0.0
"Line.MV1PMAI19"          1        0.0        0.0        0.0        0.0     0.0     0.0        0.0        0.0        0.0        0.0
"Line.MV1PMAI19"          2        0.0        0.0        0.0        0.0     0.0     0.0
"Line.MV3PMAI20"          1        0.3        1.2        0.0       -0.0     0.0    -0.0        0.0        0.0        0.0        0.0
"Line.MV3PMAI20"          2       -0.3       -1.3       -0.0        0.0    -0.0     0.0
"Line.MV3PMAI21"          1     -428.8     -147.9        0.6        0.2    -1.1     0.6        0.0        0.0        0.0        0.0
"Line.MV3PMAI21"          2      428.8      147.9       -0.6       -0.2     1.1    -0.6
"Line.MV3PMAI22"          1      857.5      295.8       -1.3       -0.3     2.2    -1.2        0.0        0.0        0.0        0.0
"Line.MV3PMAI22"          2     -857.5     -295.8        1.3        0.3    -2.2     1.2
"Line.MV3PMAI23"          1        2.3        0.6        0.0        0.0    -0.0     0.0        0.0        0.0        0.0        0.0
"Line.MV3PMAI23"          2       -2.3       -0.6       -0.0       -0.0     0.0    -0.0
"Line.MV3PMAI24"          1       14.8        5.1        0.2        0.1    -0.2     0.4        0.0        0.0        0.0        0.0
"Line.MV3PMAI24"          2      -14.8       -5.1       -0.2       -0.1     0.2    -0.4
"Line.MV3PMAI25"          1     3004.8      785.2        1.4       -4.8    -5.1   -12.3        0.0        0.0        0.0        0.0
"Line.MV3PMAI25"          2    -3004.6     -784.9       -1.4        4.8     5.2    12.4
"Line.MV3PMAI26"          1       14.8        5.1        0.2        0.1    -0.2     0.4        0.0        0.0        0.0        0.0
"Line.MV3PMAI26"          2      -14.8       -5.2       -0.2       -0.1     0.2    -0.4
"Line.MV3PMAI27"          1       14.7        4.8        0.2        0.1    -0.2     0.4        0.0        0.0        0.0        0.0
"Line.MV3PMAI27"          2      -14.7       -4.9       -0.2       -0.1     0.2    -0.4
"Line.MV3PMAI28"          1       -8.0        0.6        0.0        0.0     0.1     0.1        0.0        0.0        0.0        0.0
"Line.MV3PMAI28"          2        8.0       -0.6       -0.0       -0.0    -0.1    -0.1
"Line.MV1PMAI29"          1        0.0        0.0        0.0        0.0     0.0     0.0        0.0        0.0        0.0        0.0
"Line.MV1PMAI29"          2        0.0        0.0        0.0        0.0     0.0     0.0
"Line.MV1PMAI30"          1        0.0        0.0        0.0        0.0     0.0     0.0        0.0        0.0        0.0        0.0
"Line.MV1PMAI30"          2        0.0        0.0        0.0        0.0     0.0     0.0
"Line.MV1PMAI31"          1        0.0        0.0        0.0        0.0     0.0     0.0        0.0        0.0        0.0        0.0
"Line.MV1PMAI31"          2        0.0        0.0        0.0        0.0     0.0     0.0
"Line.MV1PMAI32"          1        0.0        0.0        0.0        0.0     0.0     0.0        0.0        0.0        0.0        0.0
"Line.MV1PMAI32"          2        0.0        0.0        0.0        0.0     0.0     0.0
"Line.MV3PMAI33"          1        0.0       -0.0        0.0       -0.0    -0.0    -0.0        0.0        0.0        0.0        0.0
"Line.MV3PMAI33"          2       -0.0       -0.0        0.0       -0.0     0.0    -0.0
"Line.MV3PMAI34"          1       -8.0        0.6        0.0        0.0     0.1     0.1        0.0        0.0        0.0        0.0
"Line.MV3PMAI34"          2        8.0       -0.7       -0.0       -0.0    -0.1    -0.1
"Line.MV1PMAI35"          1        0.0        0.0        0.0        0.0     0.0     0.0        0.0        0.0        0.0        0.0
"Line.MV1PMAI35"          2        0.0        0.0        0.0        0.0     0.0     0.0
"Line.MV1PMAI36"          1        0.0        0.0        0.0        0.0     0.0     0.0        0.0        0.0        0.0        0.0
"Line.MV1PMAI36"          2        0.0        0.0        0.0        0.0     0.0     0.0
"Line.MV1PMAI37"          1        0.0        0.0        0.0        0.0     0.0     0.0        0.0        0.0        0.0        0.0
"Line.MV1PMAI37"          2        0.0        0.0        0.0        0.0     0.0     0.0
"Line.MV1PMAI38"          1        0.0        0.0        0.0        0.0     0.0     0.0        0.0        0.0        0.0        0.0
"Line.MV1PMAI38"          2        0.0        0.0        0.0        0.0     0.0     0.0
"Line.MV3PMAI39"          1     3006.1      782.7        1.4       -4.8    -5.1   -12.5        0.0        0.0        0.0        0.0
"Line.MV3PMAI39"          2    -3005.8     -782.1       -1.4        4.8     5.2    12.6
"Line.MV3PMAI40"          1     3005.8      782.1        1.4       -4.8    -5.2   -12.6        0.0        0.0        0.0        0.0
"Line.MV3PMAI40"          2    -3005.5     -781.2       -1.4        4.8     5.2    12.8
"Line.MV3PMAI41"          1        0.0       -0.0        0.0       -0.0    -0.0    -0.0        0.0        0.0        0.0        0.0
"Line.MV3PMAI41"          2        0.0        0.0        0.0        0.0    -0.0     0.0
"Line.MV3PMAI42"          1     3005.5      781.2        1.4       -4.8    -5.2   -12.8        0.0        0.0        0.0        0.0
"Line.MV3PMAI42"          2    -3005.1     -780.3       -1.4        4.9     5.3    13.0
"Line.MV3PMAI43"          1     3004.6      778.6        1.4       -4.9    -5.3   -13.0        0.0        0.0        0.0        0.0
"Line.MV3PMAI43"          2    -3004.1     -777.5       -1.4        4.9     5.4    13.3
"Line.MV3PMAI44"          1        0.3        0.7        0.0       -0.0     0.0    -0.0        0.0        0.0        0.0        0.0
"Line.MV3PMAI44"          2       -0.3       -0.7       -0.0        0.0    -0.0     0.0
"Line.MV3PMAI45"          1     3029.8      777.0        1.3       -5.1    -5.6   -13.7        0.0        0.0        0.0        0.0
"Line.MV3PMAI45"          2    -3029.4     -775.9       -1.3        5.2     5.7    14.0
"Line.MV3PMAI46"          1        0.0       -0.0        0.0       -0.0    -0.0    -0.0        0.0        0.0        0.0        0.0
"Line.MV3PMAI46"          2       -0.0       -0.0       -0.0       -0.0     0.0    -0.0
"Line.MV3PMAI47"          1        0.0       -0.0        0.0       -0.0    -0.0    -0.0        0.0        0.0        0.0        0.0
"Line.MV3PMAI47"          2        0.0        0.0        0.0       -0.0    -0.0     0.0
"Line.MV3PMAI48"          1        0.0       -0.0        0.0       -0.0    -0.0    -0.0        0.0        0.0        0.0        0.0
"Line.MV3PMAI48"          2        0.0        0.0       -0.0        0.0     0.0     0.0
"Line.MV3PMAI49"          1        0.3        0.7        0.0       -0.0     0.0    -0.0        0.0        0.0        0.0        0.0
"Line.MV3PMAI49"          2       -0.3       -1.1       -0.0        0.0    -0.0     0.0
"Line.MV3PMAI50"          1     3029.2      775.5        1.3       -5.2    -5.7   -14.0        0.0        0.0        0.0        0.0
"Line.MV3PMAI50"          2    -3029.2     -775.4       -1.3        5.2     5.7    14.0
"Line.MV3PMAI51"          1     3029.2      775.4        1.3       -5.2    -5.7   -14.0        0.0        0.0        0.0        0.0
"Line.MV3PMAI51"          2    -3028.7     -774.2       -1.3        5.2     5.8    14.3
"Line.MV3PMAI52"          1        0.0       -0.0        0.0       -0.0    -0.0    -0.0        0.0        0.0        0.0        0.0
"Line.MV3PMAI52"          2       -0.0       -0.0       -0.0       -0.0     0.0    -0.0
"Line.MV3PMAI53"          1        0.2        0.4        0.0       -0.0     0.0    -0.0        0.0        0.0        0.0        0.0
"Line.MV3PMAI53"          2       -0.2       -0.5       -0.0        0.0    -0.0     0.0
"Line.MV3PMAI54"          1       14.6        3.2       -0.1        0.1     0.3     0.1        0.0        0.0        0.0        0.0
"Line.MV3PMAI54"          2      -14.6       -3.2        0.1       -0.1    -0.3    -0.1
"Line.MV3PMAI55"          1     3014.1      771.1        1.4       -5.3    -6.0   -14.4        0.0        0.0        0.0        0.0
"Line.MV3PMAI55"          2    -3013.7     -770.2       -1.4        5.3     6.1    14.6
"Line.MV3PMAI56"          1       14.6        3.2       -0.1        0.1     0.3     0.1        0.0        0.0        0.0        0.0
"Line.MV3PMAI56"          2      -14.6       -3.2        0.1       -0.1    -0.3    -0.1
"Line.MV3PMAI57"          1     3013.7      770.2        1.4       -5.3    -6.1   -14.6        0.0        0.0        0.0        0.0
"Line.MV3PMAI57"          2    -3013.3     -769.2       -1.4        5.4     6.2    14.8
"Line.MV3PMAI58"          1       14.6        3.2       -0.1        0.1     0.3     0.1        0.0        0.0        0.0        0.0
"Line.MV3PMAI58"          2      -14.6       -3.2        0.1       -0.1    -0.3    -0.1
"Line.MV3PMAI59"          1       14.6        3.2       -0.1        0.1     0.3     0.1        0.0        0.0        0.0        0.0
"Line.MV3PMAI59"          2      -14.6       -3.3        0.1       -0.1    -0.3    -0.1
"Line.MV1PMAI60"          1        0.0        0.0        0.0        0.0     0.0     0.0        0.0        0.0        0.0        0.0
"Line.MV1PMAI60"          2        0.0        0.0        0.0        0.0     0.0     0.0
"Line.MV3PMAI61"          1     2966.4      762.4        1.6       -5.7    -7.1   -15.1        0.0        0.0        0.0        0.0
"Line.MV3PMAI61"          2    -2966.4     -762.4       -1.6        5.7     7.1    15.1
"Line.MV1PMAI62"          1        0.0        0.0        0.0        0.0     0.0     0.0        0.0        0.0        0.0        0.0
"Line.MV1PMAI62"          2        0.0        0.0        0.0        0.0     0.0     0.0
"Line.MV3PMAI63"          1     2966.3      762.1        1.6       -5.7    -7.1   -15.2        0.0        0.0        0.0        0.0
"Line.MV3PMAI63"          2    -2966.0     -761.3       -1.6        5.7     7.1    15.4
"Line.MV3PMAI64"          1     2947.4      757.3        1.7       -5.6    -7.1   -15.0        0.0        0.0        0.0        0.0
"Line.MV3PMAI64"          2    -2946.9     -756.2       -1.7        5.7     7.2    15.3
"Line.MV3PMAI65"          1     2966.4      762.4        1.6       -5.7    -7.1   -15.1        0.0        0.0        0.0        0.0
"Line.MV3PMAI65"          2    -2966.3     -762.1       -1.6        5.7     7.1    15.2
"Line.MV3PMAI66"          1        0.3        1.0        0.0       -0.0     0.0    -0.0        0.0        0.0        0.0        0.0
"Line.MV3PMAI66"          2       -0.3       -1.0       -0.0        0.0    -0.0     0.0
"Line.MV3PMAI67"          1        0.3        1.0        0.0       -0.0     0.0    -0.0        0.0        0.0        0.0        0.0
"Line.MV3PMAI67"          2       -0.3       -1.1       -0.0        0.0    -0.0     0.0
"Line.MV1PMAI68"          1        0.0        0.0        0.0        0.0     0.0     0.0        0.0        0.0        0.0        0.0
"Line.MV1PMAI68"          2        0.0        0.0        0.0        0.0     0.0     0.0
"Line.MV3PMAI69"          1     2940.5      754.6        1.7       -5.7    -7.3   -15.4        0.0        0.0        0.0        0.0
"Line.MV3PMAI69"          2    -2940.1     -753.7       -1.7        5.8     7.4    15.6
"Line.MV1PMAI70"          1        0.0        0.0        0.0        0.0     0.0     0.0        0.0        0.0        0.0        0.0
"Line.MV1PMAI70"          2        0.0        0.0        0.0        0.0     0.0     0.0
"Line.MV1PMAI71"          1        0.0        0.0        0.0        0.0     0.0     0.0        0.0        0.0        0.0        0.0
"Line.MV1PMAI71"          2        0.0        0.0        0.0        0.0     0.0     0.0
"Line.MV1PMAI72"          1        0.0        0.0        0.0        0.0     0.0     0.0        0.0        0.0        0.0        0.0
"Line.MV1PMAI72"          2        0.0        0.0        0.0        0.0     0.0     0.0
"Line.MV3PMAI73"          1       32.4        4.0       -0.1       -0.3    -0.2    -0.7        0.0        0.0        0.0        0.0
"Line.MV3PMAI73"          2      -32.4       -4.0        0.1        0.3     0.2     0.7
"Line.MV3PMAI74"          1     2907.7      749.8        1.8       -5.5    -7.2   -15.0        0.0        0.0        0.0        0.0
"Line.MV3PMAI74"          2    -2907.3     -748.9       -1.8        5.5     7.3    15.2
"Line.MV3PMAI75"          1       32.4        4.0       -0.1       -0.3    -0.2    -0.7        0.0        0.0        0.0        0.0
"Line.MV3PMAI75"          2      -32.4       -4.5        0.1        0.3     0.2     0.7
"Line.MV3PMAI76"          1     2886.9      745.3        1.6       -5.6    -6.9   -15.5        0.0        0.0        0.0        0.0
"Line.MV3PMAI76"          2    -2886.4     -744.4       -1.6        5.6     7.0    15.7
"Line.MV3PMAI77"          1        3.8        1.9        0.0       -0.0     0.0    -0.1        0.0        0.0        0.0        0.0
"Line.MV3PMAI77"          2       -3.8       -1.9       -0.0        0.0    -0.0     0.1
"Line.MV3PMAI78"          1     1441.3      371.2        0.8       -2.8    -3.5    -7.8        0.0        0.0        0.0        0.0
"Line.MV3PMAI78"          2    -1441.1     -370.9       -0.8        2.8     3.5     7.9
"Line.MV3PMAI79"          1     1441.3      371.2        0.8       -2.8    -3.5    -7.8        0.0        0.0        0.0        0.0
"Line.MV3PMAI79"          2    -1441.2     -371.1       -0.8        2.8     3.5     7.9
"Line.MV3PMAI80"          1        3.8        1.9        0.0       -0.0     0.0    -0.1        0.0        0.0        0.0        0.0
"Line.MV3PMAI80"          2       -3.8       -1.9       -0.0        0.0    -0.0     0.1
"Line.MV3PMAI81"          1     2966.4      762.4        1.6       -5.7    -7.1   -15.1        0.0        0.0        0.0        0.0
"Line.MV3PMAI81"          2    -2966.4     -762.4       -1.6        5.7     7.1    15.1
"Line.MV3PMAI82"          1        3.8        1.9        0.0       -0.0     0.0    -0.1        0.0        0.0        0.0        0.0
"Line.MV3PMAI82"          2       -3.8       -2.0       -0.0        0.0    -0.0     0.1
"Line.MV3PMAI83"          1     1969.5      404.0        0.1       -2.5    -1.4    -6.3        0.0        0.0        0.0        0.0
"Line.MV3PMAI83"          2    -1969.4     -403.6       -0.1        2.6     1.5     6.4
"Line.MV3PMAI84"          1    -1969.4     -403.6       -0.1        2.6     1.5     6.4        0.0        0.0        0.0        0.0
"Line.MV3PMAI84"          2     1969.5      403.8        0.1       -2.6    -1.5    -6.4
"Line.MV3PMAI85"          1     3939.9      809.9        0.2       -5.0    -2.8   -12.3        0.0        0.0        0.0        0.0
"Line.MV3PMAI85"          2    -3939.1     -808.0       -0.2        5.1     2.9    12.7
"Line.MV3PMAI86"          1     1969.5      404.0        0.1       -2.5    -1.4    -6.3        0.0        0.0        0.0        0.0
"Line.MV3PMAI86"          2    -1969.5     -403.8       -0.1        2.6     1.5     6.4
"Line.MV1PMAI87"          1        0.0        0.0        0.0        0.0     0.0     0.0        0.0        0.0        0.0        0.0
"Line.MV1PMAI87"          2        0.0        0.0        0.0        0.0     0.0     0.0
"Line.MV3PMAI88"          1     2703.2      716.0        2.6       -6.8   -10.9   -17.0        0.0        0.0        0.0        0.0
"Line.MV3PMAI88"          2    -2703.0     -715.6       -2.6        6.8    10.9    17.1
"Line.MV3PMAI89"          1    -1441.1     -370.9       -0.8        2.8     3.5     7.9        0.0        0.0        0.0        0.0
"Line.MV3PMAI89"          2     1441.2      371.1        0.8       -2.8    -3.5    -7.9
"Line.MV3PMAI90"          1        0.0       -0.0        0.0       -0.0    -0.0    -0.0        0.0        0.0        0.0        0.0
"Line.MV3PMAI90"          2       -0.0        0.0        0.0       -0.0     0.0    -0.0
"Line.MV3PMAI91"          1        0.2        0.5        0.0       -0.0     0.0    -0.0        0.0        0.0        0.0        0.0
"Line.MV3PMAI91"          2       -0.2       -0.5       -0.0        0.0    -0.0     0.0
"Line.MV3PMAI92"          1      857.5      295.8       -1.3       -0.3     2.2    -1.2        0.0        0.0        0.0        0.0
"Line.MV3PMAI92"          2     -857.4     -295.7        1.3        0.4    -2.2     1.2
"Line.MV3PMAI93"          1      853.5      294.3       -1.3       -0.3     2.2    -1.1        0.0        0.0        0.0        0.0
"Line.MV3PMAI93"          2     -853.4     -294.3        1.3        0.3    -2.2     1.1
"Line.MV3PMAI94"          1        3.9        1.4        0.0       -0.0     0.0    -0.1        0.0        0.0        0.0        0.0
"Line.MV3PMAI94"          2       -3.9       -1.6       -0.0        0.0    -0.0     0.1
"Line.MV3PMAI95"          1      857.5      295.8       -1.3       -0.3     2.2    -1.2        0.0        0.0        0.0        0.0
"Line.MV3PMAI95"          2     -857.5     -295.8        1.3        0.3    -2.2     1.2
"Line.MV3PMAI96"          1      764.5      276.1       -1.2        0.3     2.6     0.3        0.0        0.0        0.0        0.0
"Line.MV3PMAI96"          2     -764.5     -276.1        1.2       -0.3    -2.6    -0.3
"Line.MV3PMAI97"          1      764.5      276.1       -1.2        0.3     2.6     0.3        0.0        0.0        0.0        0.0
"Line.MV3PMAI97"          2     -764.4     -276.1        1.2       -0.3    -2.6    -0.3
"Line.MV3PMAI98"          1       89.0       18.2       -0.1       -0.6    -0.3    -1.5        0.0        0.0        0.0        0.0
"Line.MV3PMAI98"          2      -89.0      -18.2        0.1        0.6     0.3     1.5
"Line.MV1PMAI99"          1        0.0        0.0        0.0        0.0     0.0     0.0        0.0        0.0        0.0        0.0
"Line.MV1PMAI99"          2        0.0        0.0        0.0        0.0     0.0     0.0
...
"Transformer.HVMV"        1     3965.2      921.9       -0.1       -0.8     0.0    -0.0        0.0        0.0        0.0        0.0
"Transformer.HVMV"        2    -3965.2     -871.6        0.1        2.6     0.0     2.2
"Transformer.MAI1P_1"     1        0.0        0.0        0.0        0.0     0.0     0.0        0.0        0.0        0.0        0.0
"Transformer.MAI1P_1"     2        0.0        0.0        0.0        0.0     0.0     0.0
"Transformer.MAI1P_1"     3        0.0        0.0        0.0        0.0     0.0     0.0
"Transformer.MAI1P_2"     1        0.0        0.0        0.0        0.0     0.0     0.0        0.0        0.0        0.0        0.0
"Transformer.MAI1P_2"     2        0.0        0.0        0.0        0.0     0.0     0.0
"Transformer.MAI1P_2"     3        0.0        0.0        0.0        0.0     0.0     0.0
"Transformer.MAI1P_3"     1        0.0        0.0        0.0        0.0     0.0     0.0        0.0        0.0        0.0        0.0
"Transformer.MAI1P_3"     2        0.0        0.0        0.0        0.0     0.0     0.0
"Transformer.MAI1P_3"     3        0.0        0.0        0.0        0.0     0.0     0.0
"Transformer.MAI1P_4"     1        0.0        0.0        0.0        0.0     0.0     0.0        0.0        0.0        0.0        0.0
"Transformer.MAI1P_4"     2        0.0        0.0        0.0        0.0     0.0     0.0
"Transformer.MAI1P_4"     3        0.0        0.0        0.0        0.0     0.0     0.0
"Transformer.MAI1P_5"     1        0.0        0.0        0.0        0.0     0.0     0.0        0.0        0.0        0.0        0.0
"Transformer.MAI1P_5"     2        0.0        0.0        0.0        0.0     0.0     0.0
"Transformer.MAI1P_5"     3        0.0        0.0        0.0        0.0     0.0     0.0
"Transformer.MAI1P_6"     1        0.0        0.0        0.0        0.0     0.0     0.0        0.0        0.0        0.0        0.0
"Transformer.MAI1P_6"     2        0.0        0.0        0.0        0.0     0.0     0.0
"Transformer.MAI1P_6"     3        0.0        0.0        0.0        0.0     0.0     0.0
"Transformer.MAI1P_7"     1        0.0        0.0        0.0        0.0     0.0     0.0        0.0        0.0        0.0        0.0
"Transformer.MAI1P_7"     2        0.0        0.0        0.0        0.0     0.0     0.0
"Transformer.MAI1P_7"     3        0.0        0.0        0.0        0.0     0.0     0.0
"Transformer.MAI1P_8"     1        0.0        0.0        0.0        0.0     0.0     0.0        0.0        0.0        0.0        0.0
"Transformer.MAI1P_8"     2        0.0        0.0        0.0        0.0     0.0     0.0
"Transformer.MAI1P_8"     3        0.0        0.0        0.0        0.0     0.0     0.0
"Transformer.MAI1P_9"     1        0.0        0.0        0.0        0.0     0.0     0.0        0.0        0.0        0.0        0.0
"Transformer.MAI1P_9"     2        0.0        0.0        0.0        0.0     0.0     0.0
"Transformer.MAI1P_9"     3        0.0        0.0        0.0        0.0     0.0     0.0
"Transformer.MAI1P_10"    1        0.0        0.0        0.0        0.0     0.0     0.0        0.0        0.0        0.0        0.0
"Transformer.MAI1P_10"    2        0.0        0.0        0.0        0.0     0.0     0.0
"Transformer.MAI1P_10"    3        0.0        0.0        0.0        0.0     0.0     0.0
"Transformer.MAI1P_11"    1        0.0        0.0        0.0        0.0     0.0     0.0        0.0        0.0        0.0        0.0
"Transformer.MAI1P_11"    2        0.0        0.0        0.0        0.0     0.0     0.0
"Transformer.MAI1P_11"    3        0.0        0.0        0.0        0.0     0.0     0.0
"Transformer.MAI1P_12"    1        0.0        0.0        0.0        0.0     0.0     0.0        0.0        0.0        0.0        0.0
"Transformer.MAI1P_12"    2        0.0        0.0        0.0        0.0     0.0     0.0
"Transformer.MAI1P_12"    3        0.0        0.0        0.0        0.0     0.0     0.0
"Transformer.MAI1P_13"    1        0.0        0.0        0.0        0.0     0.0     0.0        0.0        0.0        0.0        0.0
"Transformer.MAI1P_13"    2        0.0        0.0        0.0        0.0     0.0     0.0
"Transformer.MAI1P_13"    3        0.0        0.0        0.0        0.0     0.0     0.0
"Transformer.MAI1P_14"    1        0.0        0.0        0.0        0.0     0.0     0.0        0.0        0.0        0.0        0.0
"Transformer.MAI1P_14"    2        0.0        0.0        0.0        0.0     0.0     0.0
"Transformer.MAI1P_14"    3        0.0        0.0        0.0        0.0     0.0     0.0
"Transformer.MAI1P_15"    1        0.0        0.0        0.0        0.0     0.0     0.0        0.0        0.0        0.0        0.0
"Transformer.MAI1P_15"    2        0.0        0.0        0.0        0.0     0.0     0.0
"Transformer.MAI1P_15"    3        0.0        0.0        0.0        0.0     0.0     0.0
"Transformer.MAI1P_16"    1        0.0        0.0        0.0        0.0     0.0     0.0        0.0        0.0        0.0        0.0
"Transformer.MAI1P_16"    2        0.0        0.0        0.0        0.0     0.0     0.0
"Transformer.MAI1P_16"    3        0.0        0.0        0.0        0.0     0.0     0.0
"Transformer.MAI1P_17"    1        0.0        0.0        0.0        0.0     0.0     0.0        0.0        0.0        0.0        0.0
"Transformer.MAI1P_17"    2        0.0        0.0        0.0        0.0     0.0     0.0
"Transformer.MAI1P_17"    3        0.0        0.0        0.0        0.0     0.0     0.0
"Transformer.MAI1P_18"    1        0.0        0.0        0.0        0.0     0.0     0.0        0.0        0.0        0.0        0.0
"Transformer.MAI1P_18"    2        0.0        0.0        0.0        0.0     0.0     0.0
"Transformer.MAI1P_18"    3        0.0        0.0        0.0        0.0     0.0     0.0
"Transformer.MAI1P_19"    1        0.0        0.0        0.0        0.0     0.0     0.0        0.0        0.0        0.0        0.0
"Transformer.MAI1P_19"    2        0.0        0.0        0.0        0.0     0.0     0.0
"Transformer.MAI1P_19"    3        0.0        0.0        0.0        0.0     0.0     0.0
"Transformer.MAI1P_20"    1        0.0        0.0        0.0        0.0     0.0     0.0        0.0        0.0        0.0        0.0
"Transformer.MAI1P_20"    2        0.0        0.0        0.0        0.0     0.0     0.0
"Transformer.MAI1P_20"    3        0.0        0.0        0.0        0.0     0.0     0.0
"Transformer.MAI1P_21"    1        0.0        0.0        0.0        0.0     0.0     0.0        0.0        0.0        0.0        0.0
"Transformer.MAI1P_21"    2        0.0        0.0        0.0        0.0     0.0     0.0
"Transformer.MAI1P_21"    3        0.0        0.0        0.0        0.0     0.0     0.0
"Transformer.MAI1P_22"    1        0.0        0.0        0.0        0.0     0.0     0.0        0.0        0.0        0.0        0.0
"Transformer.MAI1P_22"    2        0.0        0.0        0.0        0.0     0.0     0.0
"Transformer.MAI1P_22"    3        0.0        0.0        0.0        0.0     0.0     0.0
"Transformer.MAI1P_23"    1        0.0        0.0        0.0        0.0     0.0     0.0        0.0        0.0        0.0        0.0
"Transformer.MAI1P_23"    2        0.0        0.0        0.0        0.0     0.0     0.0
"Transformer.MAI1P_23"    3        0.0        0.0        0.0        0.0     0.0     0.0
"Transformer.MAI1P_24"    1        0.0        0.0        0.0        0.0     0.0     0.0        0.0        0.0        0.0        0.0
"Transformer.MAI1P_24"    2        0.0        0.0        0.0        0.0     0.0     0.0
"Transformer.MAI1P_24"    3        0.0        0.0        0.0        0.0     0.0     0.0
"Transformer.MAI1P_25"    1        0.0        0.0        0.0        0.0     0.0     0.0        0.0        0.0        0.0        0.0
"Transformer.MAI1P_25"    2        0.0        0.0        0.0        0.0     0.0     0.0
"Transformer.MAI1P_25"    3        0.0        0.0        0.0        0.0     0.0     0.0
"Transformer.MAI1P_26"    1        0.0        0.0        0.0        0.0     0.0     0.0        0.0        0.0        0.0        0.0
"Transformer.MAI1P_26"    2        0.0        0.0        0.0        0.0     0.0     0.0
"Transformer.MAI1P_26"    3        0.0        0.0        0.0        0.0     0.0     0.0
"Transformer.MAI1P_27"    1        0.0        0.0        0.0        0.0     0.0     0.0        0.0        0.0        0.0        0.0
"Transformer.MAI1P_27"    2        0.0        0.0        0.0        0.0     0.0     0.0
"Transformer.MAI1P_27"    3        0.0        0.0        0.0        0.0     0.0     0.0
"Transformer.MAI1P_28"    1        0.0        0.0        0.0        0.0     0.0     0.0        0.0        0.0        0.0        0.0
"Transformer.MAI1P_28"    2        0.0        0.0        0.0        0.0     0.0     0.0
"Transformer.MAI1P_28"    3        0.0        0.0        0.0        0.0     0.0     0.0
"Transformer.MAI1P_29"    1        0.0        0.0        0.0        0.0     0.0     0.0        0.0        0.0        0.0        0.0
"Transformer.MAI1P_29"    2        0.0        0.0        0.0        0.0     0.0     0.0
"Transformer.MAI1P_29"    3        0.0        0.0        0.0        0.0     0.0     0.0
"Transformer.MAI1P_30"    1        0.0        0.0        0.0        0.0     0.0     0.0        0.0        0.0        0.0        0.0
"Transformer.MAI1P_30"    2        0.0        0.0        0.0        0.0     0.0     0.0
"Transformer.MAI1P_30"    3        0.0        0.0        0.0        0.0     0.0     0.0
"Transformer.MAI1P_31"    1        0.0        0.0        0.0        0.0     0.0     0.0        0.0        0.0        0.0        0.0
"Transformer.MAI1P_31"    2        0.0        0.0        0.0        0.0     0.0     0.0
"Transformer.MAI1P_31"    3        0.0        0.0        0.0        0.0     0.0     0.0
"Transformer.MAI1P_32"    1        0.0        0.0        0.0        0.0     0.0     0.0        0.0        0.0        0.0        0.0
"Transformer.MAI1P_32"    2        0.0        0.0        0.0        0.0     0.0     0.0
"Transformer.MAI1P_32"    3        0.0        0.0        0.0        0.0     0.0     0.0
"Transformer.MAI1P_33"    1        0.0        0.0        0.0        0.0     0.0     0.0        0.0        0.0        0.0        0.0
"Transformer.MAI1P_33"    2        0.0        0.0        0.0        0.0     0.0     0.0
"Transformer.MAI1P_33"    3        0.0        0.0        0.0        0.0     0.0     0.0
"Transformer.MAI1P_34"    1        0.0        0.0        0.0        0.0     0.0     0.0        0.0        0.0        0.0        0.0
"Transformer.MAI1P_34"    2        0.0        0.0        0.0        0.0     0.0     0.0
"Transformer.MAI1P_34"    3        0.0        0.0        0.0        0.0     0.0     0.0
"Transformer.MAI1P_35"    1        0.0        0.0        0.0        0.0     0.0     0.0        0.0        0.0        0.0        0.0
"Transformer.MAI1P_35"    2        0.0        0.0        0.0        0.0     0.0     0.0
"Transformer.MAI1P_35"    3        0.0        0.0        0.0        0.0     0.0     0.0
"Transformer.MAI1P_36"    1        0.0        0.0        0.0        0.0     0.0     0.0        0.0        0.0        0.0        0.0
"Transformer.MAI1P_36"    2        0.0        0.0        0.0        0.0     0.0     0.0
"Transformer.MAI1P_36"    3        0.0        0.0        0.0        0.0     0.0     0.0
"Transformer.MAI1P_37"    1        0.0        0.0        0.0        0.0     0.0     0.0        0.0        0.0        0.0        0.0
"Transformer.MAI1P_37"    2        0.0        0.0        0.0        0.0     0.0     0.0
"Transformer.MAI1P_37"    3        0.0        0.0        0.0        0.0     0.0     0.0
"Transformer.MAI1P_38"    1        0.0        0.0        0.0        0.0     0.0     0.0       30.7        4.6       23.3        3.5
"Transformer.MAI1P_38"    2        0.0        0.0        0.0        0.0     0.0     0.0
"Transformer.MAI1P_38"    3        0.0        0.0        0.0        0.0     0.0     0.0
"Transformer.MAI1P_39"    1        0.0        0.0        0.0        0.0     0.0     0.0        0.0        0.0        0.0        0.0
"Transformer.MAI1P_39"    2        0.0        0.0        0.0        0.0     0.0     0.0
"Transformer.MAI1P_39"    3        0.0        0.0        0.0        0.0     0.0     0.0
"Transformer.MAI1P_40"    1        0.0        0.0        0.0        0.0     0.0     0.0        0.0        0.0        0.0        0.0
"Transformer.MAI1P_40"    2        0.0        0.0        0.0        0.0     0.0     0.0
"Transformer.MAI1P_40"    3        0.0        0.0        0.0        0.0     0.0     0.0
"Transformer.MAI1P_41"    1        0.0        0.0        0.0        0.0     0.0     0.0        0.0        0.0        0.0        0.0
"Transformer.MAI1P_41"    2        0.0        0.0        0.0        0.0     0.0     0.0
"Transformer.MAI1P_41"    3        0.0        0.0        0.0        0.0     0.0     0.0
"Transformer.MAI1P_42"    1        0.0        0.0        0.0        0.0     0.0     0.0        0.0        0.0        0.0        0.0
"Transformer.MAI1P_42"    2        0.0        0.0        0.0        0.0     0.0     0.0
"Transformer.MAI1P_42"    3        0.0        0.0        0.0        0.0     0.0     0.0
"Transformer.MAI1P_43"    1        0.0        0.0        0.0        0.0     0.0     0.0        0.0        0.0        0.0        0.0
"Transformer.MAI1P_43"    2        0.0        0.0        0.0        0.0     0.0     0.0
"Transformer.MAI1P_43"    3        0.0        0.0        0.0        0.0     0.0     0.0
"Transformer.MAI1P_44"    1        0.0        0.0        0.0        0.0     0.0     0.0        0.0        0.0        0.0        0.0
"Transformer.MAI1P_44"    2        0.0        0.0        0.0        0.0     0.0     0.0
"Transformer.MAI1P_44"    3        0.0        0.0        0.0        0.0     0.0     0.0
"Transformer.MAI1P_45"    1        0.0        0.0        0.0        0.0     0.0     0.0        0.0        0.0        0.0        0.0
"Transformer.MAI1P_45"    2        0.0        0.0        0.0        0.0     0.0     0.0
"Transformer.MAI1P_45"    3        0.0        0.0        0.0        0.0     0.0     0.0
"Transformer.MAI1P_46"    1        0.0        0.0        0.0        0.0     0.0     0.0        0.0        0.0        0.0        0.0
"Transformer.MAI1P_46"    2        0.0        0.0        0.0        0.0     0.0     0.0
"Transformer.MAI1P_46"    3        0.0        0.0        0.0        0.0     0.0     0.0
"Transformer.MAI1P_47"    1        0.0        0.0        0.0        0.0     0.0     0.0        0.0        0.0        0.0        0.0
"Transformer.MAI1P_47"    2        0.0        0.0        0.0        0.0     0.0     0.0
"Transformer.MAI1P_47"    3        0.0        0.0        0.0        0.0     0.0     0.0
"Transformer.MAI1P_48"    1        0.0        0.0        0.0        0.0     0.0     0.0        0.0        0.0        0.0        0.0
"Transformer.MAI1P_48"    2        0.0        0.0        0.0        0.0     0.0     0.0
"Transformer.MAI1P_48"    3        0.0        0.0        0.0        0.0     0.0     0.0
"Transformer.MAI1P_49"    1        0.0        0.0        0.0        0.0     0.0     0.0        0.0        0.0        0.0        0.0
"Transformer.MAI1P_49"    2        0.0        0.0        0.0        0.0     0.0     0.0
"Transformer.MAI1P_49"    3        0.0        0.0        0.0        0.0     0.0     0.0
"Transformer.MAI1P_50"    1        0.0        0.0        0.0        0.0     0.0     0.0       26.0        3.9       13.6        2.0
"Transformer.MAI1P_50"    2        0.0        0.0        0.0        0.0     0.0     0.0
"Transformer.MAI1P_50"    3        0.0        0.0        0.0        0.0     0.0     0.0
"Transformer.MAI1P_51"    1        0.0        0.0        0.0        0.0     0.0     0.0        0.0        0.0        0.0        0.0
"Transformer.MAI1P_51"    2        0.0        0.0        0.0        0.0     0.0     0.0
"Transformer.MAI1P_51"    3        0.0        0.0        0.0        0.0     0.0     0.0
"Transformer.MAI1P_52"    1        0.0        0.0        0.0        0.0     0.0     0.0        0.0        0.0        0.0        0.0
"Transformer.MAI1P_52"    2        0.0        0.0        0.0        0.0     0.0     0.0
"Transformer.MAI1P_52"    3        0.0        0.0        0.0        0.0     0.0     0.0
"Transformer.MAI1P_53"    1        0.0        0.0        0.0        0.0     0.0     0.0        0.0        0.0        0.0        0.0
"Transformer.MAI1P_53"    2        0.0        0.0        0.0        0.0     0.0     0.0
"Transformer.MAI1P_53"    3        0.0        0.0        0.0        0.0     0.0     0.0
"Transformer.MAI1P_54"    1        0.0        0.0        0.0        0.0     0.0     0.0        0.0        0.0        0.0        0.0
"Transformer.MAI1P_54"    2        0.0        0.0        0.0        0.0     0.0     0.0
"Transformer.MAI1P_54"    3        0.0        0.0        0.0        0.0     0.0     0.0
"Transformer.MAI1P_55"    1        0.0        0.0        0.0        0.0     0.0     0.0        0.0        0.0        0.0        0.0
"Transformer.MAI1P_55"    2        0.0        0.0        0.0        0.0     0.0     0.0
"Transformer.MAI1P_55"    3        0.0        0.0        0.0        0.0     0.0     0.0
"Transformer.MAI1P_56"    1        0.0        0.0        0.0        0.0     0.0     0.0        0.0        0.0        0.0        0.0
"Transformer.MAI1P_56"    2        0.0        0.0        0.0        0.0     0.0     0.0
"Transformer.MAI1P_56"    3        0.0        0.0        0.0        0.0     0.0     0.0
"Transformer.MAI1P_57"    1        0.0        0.0        0.0        0.0     0.0     0.0        0.0        0.0        0.0        0.0
"Transformer.MAI1P_57"    2        0.0        0.0        0.0        0.0     0.0     0.0
"Transformer.MAI1P_57"    3        0.0        0.0        0.0        0.0     0.0     0.0
"Transformer.MAI1P_58"    1        0.0        0.0        0.0        0.0     0.0     0.0        0.0        0.0        0.0        0.0
"Transformer.MAI1P_58"    2        0.0        0.0        0.0        0.0     0.0     0.0
"Transformer.MAI1P_58"    3        0.0        0.0        0.0        0.0     0.0     0.0
"Transformer.MAI1P_59"    1        0.0        0.0        0.0        0.0     0.0     0.0        0.0        0.0        0.0        0.0
"Transformer.MAI1P_59"    2        0.0        0.0        0.0        0.0     0.0     0.0
"Transformer.MAI1P_59"    3        0.0        0.0        0.0        0.0     0.0     0.0
"Transformer.MAI1P_60"    1        0.0        0.0        0.0        0.0     0.0     0.0        0.0        0.0        0.0        0.0
"Transformer.MAI1P_60"    2        0.0        0.0        0.0        0.0     0.0     0.0
"Transformer.MAI1P_60"    3        0.0        0.0        0.0        0.0     0.0     0.0
"Transformer.MAI1P_61"    1        0.0        0.0        0.0        0.0     0.0     0.0        0.0        0.0        0.0        0.0
"Transformer.MAI1P_61"    2        0.0        0.0        0.0        0.0     0.0     0.0
"Transformer.MAI1P_61"    3        0.0        0.0        0.0        0.0     0.0     0.0
"Transformer.MAI1P_62"    1        0.0        0.0        0.0        0.0     0.0     0.0        0.0        0.0        0.0        0.0
"Transformer.MAI1P_62"    2        0.0        0.0        0.0        0.0     0.0     0.0
"Transformer.MAI1P_62"    3        0.0        0.0        0.0        0.0     0.0     0.0
"Transformer.MAI1P_63"    1        0.0        0.0        0.0        0.0     0.0     0.0        0.0        0.0        0.0        0.0
"Transformer.MAI1P_63"    2        0.0        0.0        0.0        0.0     0.0     0.0
"Transformer.MAI1P_63"    3        0.0        0.0        0.0        0.0     0.0     0.0
"Transformer.MAI1P_64"    1        0.0        0.0        0.0        0.0     0.0     0.0        0.0        0.0        0.0        0.0
"Transformer.MAI1P_64"    2        0.0        0.0        0.0        0.0     0.0     0.0
"Transformer.MAI1P_64"    3        0.0        0.0        0.0        0.0     0.0     0.0
"Transformer.MAI1P_65"    1        0.0        0.0        0.0        0.0     0.0     0.0        0.0        0.0        0.0        0.0
"Transformer.MAI1P_65"    2        0.0        0.0        0.0        0.0     0.0     0.0
"Transformer.MAI1P_65"    3        0.0        0.0        0.0        0.0     0.0     0.0
"Transformer.MAI1P_66"    1        0.0        0.0        0.0        0.0     0.0     0.0        0.0        0.0        0.0        0.0
"Transformer.MAI1P_66"    2        0.0        0.0        0.0        0.0     0.0     0.0
"Transformer.MAI1P_66"    3        0.0        0.0        0.0        0.0     0.0     0.0
...
"Capacitor.CAP0"          1        0.0     -294.8       -0.0       -0.0    -0.0    -0.3       -0.0      -69.1        0.0        0.0
"Capacitor.CAP0"          2        0.0        0.0        0.0        0.0     0.0     0.0
"Capacitor.CAP1"          1        0.0     -303.8        0.0       -0.0    -0.0    -0.1        0.0      -71.3        0.0        0.0
"Capacitor.CAP1"          2        0.0        0.0        0.0        0.0     0.0     0.0
"Line.LV1FMAI1"           1        0.0        0.0        0.0        0.0     0.0     0.0        0.0        0.0        0.0        0.0
"Line.LV1FMAI1"           2        0.0        0.0        0.0        0.0     0.0     0.0
"Line.LV1FMAI2"           1        0.0        0.0        0.0        0.0     0.0     0.0        0.0        0.0        0.0        0.0
"Line.LV1FMAI2"           2        0.0        0.0        0.0        0.0     0.0     0.0
"Line.LV1FMAI3"           1        0.0        0.0        0.0        0.0     0.0     0.0        0.0        0.0        0.0        0.0
"Line.LV1FMAI3"           2        0.0        0.0        0.0        0.0     0.0     0.0
"Line.LV1FMAI4"           1        0.0        0.0        0.0        0.0     0.0     0.0        0.0        0.0        0.0        0.0
"Line.LV1FMAI4"           2        0.0        0.0        0.0        0.0     0.0     0.0
"Line.LV1FMAI5"           1        0.0        0.0        0.0        0.0     0.0     0.0        0.0        0.0        0.0        0.0
"Line.LV1FMAI5"           2        0.0        0.0        0.0        0.0     0.0     0.0
"Line.LV1FMAI6"           1        0.0        0.0        0.0        0.0     0.0     0.0        0.0        0.0        0.0        0.0
"Line.LV1FMAI6"           2        0.0        0.0        0.0        0.0     0.0     0.0
"Line.LV1FMAI7"           1        0.0        0.0        0.0        0.0     0.0     0.0        0.0        0.0        0.0        0.0
"Line.LV1FMAI7"           2        0.0        0.0        0.0        0.0     0.0     0.0
"Line.LV1FMAI8"           1        0.0        0.0        0.0        0.0     0.0     0.0        0.0        0.0        0.0        0.0
"Line.LV1FMAI8"           2        0.0        0.0        0.0        0.0     0.0     0.0
"Line.LV1FMAI9"           1        0.0        0.0        0.0        0.0     0.0     0.0        0.0        0.0        0.0        0.0
"Line.LV1FMAI9"           2        0.0        0.0        0.0        0.0     0.0     0.0
"Line.LV1FMAI10"          1        0.0        0.0        0.0        0.0     0.0     0.0        0.0        0.0        0.0        0.0
"Line.LV1FMAI10"          2        0.0        0.0        0.0        0.0     0.0     0.0
"Line.LV1FMAI11"          1        0.0        0.0        0.0        0.0     0.0     0.0        0.0        0.0        0.0        0.0
"Line.LV1FMAI11"          2        0.0        0.0        0.0        0.0     0.0     0.0
"Line.LV1FMAI12"          1        0.0        0.0        0.0        0.0     0.0     0.0        0.0        0.0        0.0        0.0
"Line.LV1FMAI12"          2        0.0        0.0        0.0        0.0     0.0     0.0
"Line.LV1FMAI13"          1        0.0        0.0        0.0        0.0     0.0     0.0        0.0        0.0        0.0        0.0
"Line.LV1FMAI13"          2        0.0        0.0        0.0        0.0     0.0     0.0
"Line.LV1FMAI14"          1        0.0        0.0        0.0        0.0     0.0     0.0        0.0        0.0        0.0        0.0
"Line.LV1FMAI14"          2        0.0        0.0        0.0        0.0     0.0     0.0
"Line.LV1FMAI15"          1        0.0        0.0        0.0        0.0     0.0     0.0        0.0        0.0        0.0        0.0
"Line.LV1FMAI15"          2        0.0        0.0        0.0        0.0     0.0     0.0
"Line.LV1FMAI16"          1        0.0        0.0        0.0        0.0     0.0     0.0        0.0        0.0        0.0        0.0
"Line.LV1FMAI16"          2        0.0        0.0        0.0        0.0     0.0     0.0
"Line.LV1FMAI17"          1        0.0        0.0        0.0        0.0     0.0     0.0        0.0        0.0        0.0        0.0
"Line.LV1FMAI17"          2        0.0        0.0        0.0        0.0     0.0     0.0
"Line.LV1FMAI18"          1        0.0        0.0        0.0        0.0     0.0     0.0        0.0        0.0        0.0        0.0
"Line.LV1FMAI18"          2        0.0        0.0        0.0        0.0     0.0     0.0
"Line.LV1FMAI19"          1        0.0        0.0        0.0        0.0     0.0     0.0        0.0        0.0        0.0        0.0
"Line.LV1FMAI19"          2        0.0        0.0        0.0        0.0     0.0     0.0
"Line.LV1FMAI20"          1        0.0        0.0        0.0        0.0     0.0     0.0        0.0        0.0        0.0        0.0
"Line.LV1FMAI20"          2        0.0        0.0        0.0        0.0     0.0     0.0
"Line.LV1FMAI21"          1        0.0        0.0        0.0        0.0     0.0     0.0        0.0        0.0        0.0        0.0
"Line.LV1FMAI21"          2        0.0        0.0        0.0        0.0     0.0     0.0
"Line.LV1FMAI22"          1        0.0        0.0        0.0        0.0     0.0     0.0        0.0        0.0        0.0        0.0
"Line.LV1FMAI22"          2        0.0        0.0        0.0        0.0     0.0     0.0
"Line.LV1FMAI23"          1        0.0        0.0        0.0        0.0     0.0     0.0        0.0        0.0        0.0        0.0
"Line.LV1FMAI23"          2        0.0        0.0        0.0        0.0     0.0     0.0
"Line.LV1FMAI24"          1        0.0        0.0        0.0        0.0     0.0     0.0        0.0        0.0        0.0        0.0
"Line.LV1FMAI24"          2        0.0        0.0        0.0        0.0     0.0     0.0
"Line.LV1FMAI25"          1        0.0        0.0        0.0        0.0     0.0     0.0        0.0        0.0        0.0        0.0
"Line.LV1FMAI25"          2        0.0        0.0        0.0        0.0     0.0     0.0
"Line.LV1FMAI26"          1        0.0        0.0        0.0        0.0     0.0     0.0        0.0        0.0        0.0        0.0
"Line.LV1FMAI26"          2        0.0        0.0        0.0        0.0     0.0     0.0
"Line.LV1FMAI27"          1        0.0        0.0        0.0        0.0     0.0     0.0        0.0        0.0        0.0        0.0
"Line.LV1FMAI27"          2        0.0        0.0        0.0        0.0     0.0     0.0
"Line.LV1FMAI28"          1        0.0        0.0        0.0        0.0     0.0     0.0        0.0        0.0        0.0        0.0
"Line.LV1FMAI28"          2        0.0        0.0        0.0        0.0     0.0     0.0
"Line.LV1FMAI29"          1        0.0        0.0        0.0        0.0     0.0     0.0        0.0        0.0        0.0        0.0
"Line.LV1FMAI29"          2        0.0        0.0        0.0        0.0     0.0     0.0
"Line.LV1FMAI30"          1        0.0        0.0        0.0        0.0     0.0     0.0        0.0        0.0        0.0        0.0
"Line.LV1FMAI30"          2        0.0        0.0        0.0        0.0     0.0     0.0
"Line.LV1FMAI31"          1        0.0        0.0        0.0        0.0     0.0     0.0        0.0        0.0        0.0        0.0
"Line.LV1FMAI31"          2        0.0        0.0        0.0        0.0     0.0     0.0
"Line.LV1FMAI32"          1        0.0        0.0        0.0        0.0     0.0     0.0        0.0        0.0        0.0        0.0
"Line.LV1FMAI32"          2        0.0        0.0        0.0        0.0     0.0     0.0
"Line.LV1FMAI33"          1        0.0        0.0        0.0        0.0     0.0     0.0        0.0        0.0        0.0        0.0
"Line.LV1FMAI33"          2        0.0        0.0        0.0        0.0     0.0     0.0
"Line.LV1FMAI34"          1        0.0        0.0        0.0        0.0     0.0     0.0        0.0        0.0        0.0        0.0
"Line.LV1FMAI34"          2        0.0        0.0        0.0        0.0     0.0     0.0
"Line.LV1FMAI35"          1        0.0        0.0        0.0        0.0     0.0     0.0        0.0        0.0        0.0        0.0
"Line.LV1FMAI35"          2        0.0        0.0        0.0        0.0     0.0     0.0
"Line.LV1FMAI36"          1        0.0        0.0        0.0        0.0     0.0     0.0        0.0        0.0        0.0        0.0
"Line.LV1FMAI36"          2        0.0        0.0        0.0        0.0     0.0     0.0
"Line.LV1FMAI37"          1        0.0        0.0        0.0        0.0     0.0     0.0        0.0        0.0        0.0        0.0
"Line.LV1FMAI37"          2        0.0        0.0        0.0        0.0     0.0     0.0
"Line.LV1FMAI38"          1        0.0        0.0        0.0        0.0     0.0     0.0        0.0        0.0        0.0        0.0
"Line.LV1FMAI38"          2        0.0        0.0        0.0        0.0     0.0     0.0
"Line.LV1FMAI39"          1        0.0        0.0        0.0        0.0     0.0     0.0        0.0        0.0        0.0        0.0
"Line.LV1FMAI39"          2        0.0        0.0        0.0        0.0     0.0     0.0
"Line.LV1FMAI40"          1        0.0        0.0        0.0        0.0     0.0     0.0        0.0        0.0        0.0        0.0
"Line.LV1FMAI40"          2        0.0        0.0        0.0        0.0     0.0     0.0
"Line.LV1FMAI41"          1        0.0        0.0        0.0        0.0     0.0     0.0        0.0        0.0        0.0        0.0
"Line.LV1FMAI41"          2        0.0        0.0        0.0        0.0     0.0     0.0
"Line.LV1FMAI42"          1        0.0        0.0        0.0        0.0     0.0     0.0        0.0        0.0        0.0        0.0
"Line.LV1FMAI42"          2        0.0        0.0        0.0        0.0     0.0     0.0
"Line.LV1FMAI43"          1        0.0        0.0        0.0        0.0     0.0     0.0        0.0        0.0        0.0        0.0
"Line.LV1FMAI43"          2        0.0        0.0        0.0        0.0     0.0     0.0
"Line.LV1FMAI44"          1        0.0        0.0        0.0        0.0     0.0     0.0        0.0        0.0        0.0        0.0
"Line.LV1FMAI44"          2        0.0        0.0        0.0        0.0     0.0     0.0
"Line.LV1FMAI45"          1        0.0        0.0        0.0        0.0     0.0     0.0        0.0        0.0        0.0        0.0
"Line.LV1FMAI45"          2        0.0        0.0        0.0        0.0     0.0     0.0
"Line.LV1FMAI46"          1        0.0        0.0        0.0        0.0     0.0     0.0        0.0        0.0        0.0        0.0
"Line.LV1FMAI46"          2        0.0        0.0        0.0        0.0     0.0     0.0
"Line.LV1FMAI47"          1        0.0        0.0        0.0        0.0     0.0     0.0        0.0        0.0        0.0        0.0
"Line.LV1FMAI47"          2        0.0        0.0        0.0        0.0     0.0     0.0
"Line.LV1FMAI48"          1        0.0        0.0        0.0        0.0     0.0     0.0        0.0        0.0        0.0        0.0
"Line.LV1FMAI48"          2        0.0        0.0        0.0        0.0     0.0     0.0
"Line.LV1FMAI49"          1        0.0        0.0        0.0        0.0     0.0     0.0        0.0        0.0        0.0        0.0
"Line.LV1FMAI49"          2        0.0        0.0        0.0        0.0     0.0     0.0
"Line.LV1FMAI50"          1        0.0        0.0        0.0        0.0     0.0     0.0        0.0        0.0        0.0        0.0
"Line.LV1FMAI50"          2        0.0        0.0        0.0        0.0     0.0     0.0
"Line.LV1FMAI51"          1        0.0        0.0        0.0        0.0     0.0     0.0        0.0        0.0        0.0        0.0
"Line.LV1FMAI51"          2        0.0        0.0        0.0        0.0     0.0     0.0
"Line.LV1FMAI52"          1        0.0        0.0        0.0        0.0     0.0     0.0        0.0        0.0        0.0        0.0
"Line.LV1FMAI52"          2        0.0        0.0        0.0        0.0     0.0     0.0
"Line.LV1FMAI53"          1        0.0        0.0        0.0        0.0     0.0     0.0        0.0        0.0        0.0        0.0
"Line.LV1FMAI53"          2        0.0        0.0        0.0        0.0     0.0     0.0
"Line.LV1FMAI54"          1        0.0        0.0        0.0        0.0     0.0     0.0        0.0        0.0        0.0        0.0
"Line.LV1FMAI54"          2        0.0        0.0        0.0        0.0     0.0     0.0
"Line.LV1FMAI55"          1        0.0        0.0        0.0        0.0     0.0     0.0        0.0        0.0        0.0        0.0
"Line.LV1FMAI55"          2        0.0        0.0        0.0        0.0     0.0     0.0
"Line.LV1FMAI56"          1        0.0        0.0        0.0        0.0     0.0     0.0        0.0        0.0        0.0        0.0
"Line.LV1FMAI56"          2        0.0        0.0        0.0        0.0     0.0     0.0
"Line.LV1FMAI57"          1        0.0        0.0        0.0        0.0     0.0     0.0        0.0        0.0        0.0        0.0
"Line.LV1FMAI57"          2        0.0        0.0        0.0        0.0     0.0     0.0
"Line.LV1FMAI58"          1        0.0        0.0        0.0        0.0     0.0     0.0        0.0        0.0        0.0        0.0
"Line.LV1FMAI58"          2        0.0        0.0        0.0        0.0     0.0     0.0
"Line.LV1FMAI59"          1        0.0        0.0        0.0        0.0     0.0     0.0        0.0        0.0        0.0        0.0
"Line.LV1FMAI59"          2        0.0        0.0        0.0        0.0     0.0     0.0
"Line.LV1FMAI60"          1        0.0        0.0        0.0        0.0     0.0     0.0        0.0        0.0        0.0        0.0
"Line.LV1FMAI60"          2        0.0        0.0        0.0        0.0     0.0     0.0
"Line.LV1FMAI61"          1        0.0        0.0        0.0        0.0     0.0     0.0        0.0        0.0        0.0        0.0
"Line.LV1FMAI61"          2        0.0        0.0        0.0        0.0     0.0     0.0
"Line.LV1FMAI62"          1        0.0        0.0        0.0        0.0     0.0     0.0        0.0        0.0        0.0        0.0
"Line.LV1FMAI62"          2        0.0        0.0        0.0        0.0     0.0     0.0
"Line.LV1FMAI63"          1        0.0        0.0        0.0        0.0     0.0     0.0        0.0        0.0        0.0        0.0
"Line.LV1FMAI63"          2        0.0        0.0        0.0        0.0     0.0     0.0
"Line.LV1FMAI64"          1        0.0        0.0        0.0        0.0     0.0     0.0        0.0        0.0        0.0        0.0
"Line.LV1FMAI64"          2        0.0        0.0        0.0        0.0     0.0     0.0
"Line.LV1FMAI65"          1        0.0        0.0        0.0        0.0     0.0     0.0        0.0        0.0        0.0        0.0
"Line.LV1FMAI65"          2        0.0        0.0        0.0        0.0     0.0     0.0
"Line.LV1FMAI66"          1        0.0        0.0        0.0        0.0     0.0     0.0        0.0        0.0        0.0        0.0
"Line.LV1FMAI66"          2        0.0        0.0        0.0        0.0     0.0     0.0
"Line.LV1FMAI67"          1        0.0        0.0        0.0        0.0     0.0     0.0        0.0        0.0        0.0        0.0
"Line.LV1FMAI67"          2        0.0        0.0        0.0        0.0     0.0     0.0
"Line.LV1FMAI68"          1        0.0        0.0        0.0        0.0     0.0     0.0        0.0        0.0        0.0        0.0
"Line.LV1FMAI68"          2        0.0        0.0        0.0        0.0     0.0     0.0
"Line.LV1FMAI69"          1        0.0        0.0        0.0        0.0     0.0     0.0        0.0        0.0        0.0        0.0
"Line.LV1FMAI69"          2        0.0        0.0        0.0        0.0     0.0     0.0
"Line.LV1FMAI70"          1        0.0        0.0        0.0        0.0     0.0     0.0        0.0        0.0        0.0        0.0
"Line.LV1FMAI70"          2        0.0        0.0        0.0        0.0     0.0     0.0
"Line.LV1FMAI71"          1        0.0        0.0        0.0        0.0     0.0     0.0        0.0        0.0        0.0        0.0
"Line.LV1FMAI71"          2        0.0        0.0        0.0        0.0     0.0     0.0
"Line.LV1FMAI72"          1        0.0        0.0        0.0        0.0     0.0     0.0        0.0        0.0        0.0        0.0
"Line.LV1FMAI72"          2        0.0        0.0        0.0        0.0     0.0     0.0
"Line.LV1FMAI73"          1        0.0        0.0        0.0        0.0     0.0     0.0        0.0        0.0        0.0        0.0
"Line.LV1FMAI73"          2        0.0        0.0        0.0        0.0     0.0     0.0
"Line.LV1FMAI74"          1        0.0        0.0        0.0        0.0     0.0     0.0        0.0        0.0        0.0        0.0
"Line.LV1FMAI74"          2        0.0        0.0        0.0        0.0     0.0     0.0
"Line.LV1FMAI75"          1        0.0        0.0        0.0        0.0     0.0     0.0        0.0        0.0        0.0        0.0
"Line.LV1FMAI75"          2        0.0        0.0        0.0        0.0     0.0     0.0
...